Version 4
SHEET 1 1520 1012
WIRE -96 48 -96 16
WIRE 352 64 288 64
WIRE 448 64 432 64
WIRE 448 144 448 64
WIRE 496 144 448 144
WIRE -96 160 -96 128
WIRE -96 160 -224 160
WIRE 288 160 288 64
WIRE 288 160 240 160
WIRE 736 160 560 160
WIRE -224 176 -224 160
WIRE 496 176 448 176
WIRE -96 192 -96 160
WIRE 240 192 240 160
WIRE 288 256 288 160
WIRE 352 256 288 256
WIRE 448 256 448 176
WIRE 448 256 432 256
WIRE -96 320 -96 272
FLAG -224 176 0
FLAG -96 16 +V
FLAG -96 320 -V
FLAG 240 192 0
FLAG 736 160 output
SYMBOL voltage -96 32 R0
WINDOW 123 0 0 Left 0
WINDOW 39 0 0 Left 0
SYMATTR InstName V1
SYMATTR Value 2.5
SYMBOL voltage -96 176 R0
WINDOW 123 0 0 Left 0
WINDOW 39 0 0 Left 0
SYMATTR InstName V2
SYMATTR Value 2.5
SYMBOL voltage 448 64 R90
WINDOW 0 -32 56 VBottom 2
WINDOW 3 32 56 VTop 2
WINDOW 123 0 0 Left 0
WINDOW 39 0 0 Left 0
SYMATTR InstName V3
SYMATTR Value 1.2
SYMBOL voltage 448 256 R90
WINDOW 0 -32 56 VBottom 2
WINDOW 3 32 56 VTop 2
WINDOW 123 0 0 Left 0
WINDOW 39 0 0 Left 0
SYMATTR InstName V4
SYMATTR Value 1.5
SYMBOL OpAmps\\AD8538 528 96 R0
SYMATTR InstName U1
TEXT -244 394 Left 2 !.tran 10ms startup
